
  Canvas  00000000002D

178187  0  0  1  0  0  0  0  0999 V2000
  -66.4089    1.8630    0.0000 F   0  0  0
  -65.7590    2.9888    0.0000 C   0  0  0
  -67.0585    2.9883    0.0000 F   0  0  0
  -65.7587    4.2883    0.0000 F   0  0  0
  -64.6347    2.3382    0.0000 S   0  0  0
  -63.9820    3.4627    0.0000 O   0  0  0
  -65.2872    1.2146    0.0000 O   0  0  0
  -63.5185    1.6966    0.0000 N   0  0  0
  -63.5213    0.3617    0.0000 C   0  0  0
  -62.3848   -0.2533    0.0000 C   0  0  0
  -62.3788    2.3085    0.0000 C   0  0  0
  -61.2418    1.6919    0.0000 C   0  0  0
  -61.2452    0.3576    0.0000 C   0  0  0
  -60.1229   -0.2840    0.0000 N   0  0  0
  -59.0025    0.3630    0.0000 C   0  0  0
  -58.9888    1.6758    0.0000 C   0  0  0
  -57.8741    2.3418    0.0000 C   0  0  0
  -56.7625    1.6828    0.0000 N   0  0  0
  -56.7493    0.3680    0.0000 C   0  0  0
  -57.8816   -0.2700    0.0000 C   0  0  0
  -55.6320   -0.2635    0.0000 C   0  0  0
  -55.6468   -1.5804    0.0000 C   0  0  0
  -56.7607   -2.2472    0.0000 C   0  0  0
  -57.8686   -1.5892    0.0000 C   0  0  0
  -56.7584   -3.5210    0.0000 C   0  0  0
  -55.6426   -4.1581    0.0000 C   0  0  0
  -55.6460   -5.4937    0.0000 C   0  0  0
  -54.5092   -6.1090    0.0000 C   0  0  0
  -53.3693   -5.4979    0.0000 C   0  0  0
  -52.2541   -6.1441    0.0000 Cl  0  0  0
  -53.3665   -4.1623    0.0000 C   0  0  0
  -54.5030   -3.5475    0.0000 C   0  0  0
  -57.8712   -4.1563    0.0000 C   0  0  0
  -59.0098   -3.5441    0.0000 C   0  0  0
  -60.1474   -4.1565    0.0000 C   0  0  0
  -60.1469   -5.4924    0.0000 C   0  0  0
  -61.2631   -6.1366    0.0000 Cl  0  0  0
  -59.0080   -6.1052    0.0000 C   0  0  0
  -57.8702   -5.4924    0.0000 C   0  0  0
  -54.5157    0.3797    0.0000 O   0  0  0
  -53.3888   -0.2728    0.0000 C   0  0  0
  -52.2599    0.3747    0.0000 C   0  0  0
  -51.1340   -0.2788    0.0000 O   0  0  0
  -50.0055    0.3690    0.0000 C   0  0  0
  -48.8797   -0.2835    0.0000 C   0  0  0
  -47.7520    0.3651    0.0000 O   0  0  0
  -46.6261   -0.2861    0.0000 C   0  0  0
  -45.4995    0.3633    0.0000 C   0  0  0
  -44.3736   -0.2874    0.0000 O   0  0  0
  -43.2472    0.3620    0.0000 C   0  0  0
  -42.1217   -0.2889    0.0000 C   0  0  0
  -40.9955    0.3602    0.0000 O   0  0  0
  -39.8702   -0.2905    0.0000 C   0  0  0
  -38.7441    0.3583    0.0000 C   0  0  0
  -37.6187   -0.2923    0.0000 O   0  0  0
  -36.4926    0.3565    0.0000 C   0  0  0
  -35.3675   -0.2941    0.0000 C   0  0  0
  -34.2414    0.3547    0.0000 O   0  0  0
  -33.1163   -0.2960    0.0000 C   0  0  0
  -31.9902    0.3529    0.0000 C   0  0  0
  -30.8651   -0.2978    0.0000 O   0  0  0
  -29.7390    0.3513    0.0000 C   0  0  0
  -28.6139   -0.2996    0.0000 C   0  0  0
  -27.4878    0.3495    0.0000 O   0  0  0
  -26.3627   -0.3014    0.0000 C   0  0  0
  -25.2366    0.3477    0.0000 C   0  0  0
  -24.1115   -0.3032    0.0000 O   0  0  0
  -22.9854    0.3459    0.0000 C   0  0  0
  -21.8603   -0.3048    0.0000 C   0  0  0
  -20.7342    0.3440    0.0000 O   0  0  0
  -19.6091   -0.3066    0.0000 C   0  0  0
  -18.4830    0.3422    0.0000 C   0  0  0
  -17.3579   -0.3084    0.0000 O   0  0  0
  -16.2318    0.3404    0.0000 C   0  0  0
  -15.1067   -0.3103    0.0000 C   0  0  0
  -13.9806    0.3386    0.0000 O   0  0  0
  -12.8555   -0.3121    0.0000 C   0  0  0
  -11.7294    0.3368    0.0000 C   0  0  0
  -10.6043   -0.3139    0.0000 C   0  0  0
  -10.6053   -1.6137    0.0000 O   0  0  0
   -9.4782    0.3352    0.0000 N   0  0  0
   -8.3531   -0.3157    0.0000 C   0  0  0
   -7.2270    0.3334    0.0000 C   0  0  0
   -6.1019   -0.3175    0.0000 C   0  0  0
   -4.9758    0.3316    0.0000 O   0  0  0
   -3.8507   -0.3194    0.0000 C   0  0  0
   -2.7246    0.3298    0.0000 C   0  0  0
   -1.5995   -0.3212    0.0000 O   0  0  0
   -0.4734    0.3279    0.0000 C   0  0  0
    0.6517   -0.3227    0.0000 C   0  0  0
    1.7778    0.3261    0.0000 O   0  0  0
    2.9029   -0.3246    0.0000 C   0  0  0
    4.0290    0.3243    0.0000 C   0  0  0
    5.1541   -0.3264    0.0000 O   0  0  0
    6.2802    0.3225    0.0000 C   0  0  0
    7.4053   -0.3282    0.0000 C   0  0  0
    8.5314    0.3206    0.0000 C   0  0  0
    9.6565   -0.3300    0.0000 N   0  0  0
   10.7826    0.3188    0.0000 C   0  0  0
   10.7837    1.6186    0.0000 O   0  0  0
   11.9077   -0.3318    0.0000 C   0  0  0
   13.0338    0.3173    0.0000 C   0  0  0
   14.1589   -0.3337    0.0000 O   0  0  0
   15.2850    0.3155    0.0000 C   0  0  0
   16.4101   -0.3355    0.0000 C   0  0  0
   17.5362    0.3136    0.0000 O   0  0  0
   18.6613   -0.3373    0.0000 C   0  0  0
   19.7874    0.3118    0.0000 C   0  0  0
   20.9125   -0.3391    0.0000 O   0  0  0
   22.0386    0.3100    0.0000 C   0  0  0
   23.1637   -0.3407    0.0000 C   0  0  0
   24.2898    0.3082    0.0000 O   0  0  0
   25.4149   -0.3425    0.0000 C   0  0  0
   26.5410    0.3064    0.0000 C   0  0  0
   27.6661   -0.3443    0.0000 O   0  0  0
   28.7922    0.3045    0.0000 C   0  0  0
   29.9173   -0.3461    0.0000 C   0  0  0
   31.0434    0.3027    0.0000 O   0  0  0
   32.1685   -0.3480    0.0000 C   0  0  0
   33.2946    0.3012    0.0000 C   0  0  0
   34.4197   -0.3498    0.0000 O   0  0  0
   35.5458    0.2993    0.0000 C   0  0  0
   36.6709   -0.3516    0.0000 C   0  0  0
   37.7970    0.2975    0.0000 O   0  0  0
   38.9221   -0.3534    0.0000 C   0  0  0
   40.0483    0.2957    0.0000 C   0  0  0
   41.1733   -0.3552    0.0000 O   0  0  0
   42.2995    0.2939    0.0000 C   0  0  0
   43.4245   -0.3568    0.0000 C   0  0  0
   44.5509    0.2921    0.0000 O   0  0  0
   45.6760   -0.3589    0.0000 C   0  0  0
   46.8026    0.2902    0.0000 C   0  0  0
   47.9280   -0.3607    0.0000 O   0  0  0
   49.0546    0.2882    0.0000 C   0  0  0
   50.1802   -0.3628    0.0000 C   0  0  0
   51.3069    0.2866    0.0000 O   0  0  0
   52.4330   -0.3641    0.0000 C   0  0  0
   53.5596    0.2858    0.0000 C   0  0  0
   54.6863   -0.3648    0.0000 O   0  0  0
   55.7999    0.2835    0.0000 C   0  0  0
   55.8158    1.5877    0.0000 C   0  0  0
   56.9338    2.2425    0.0000 C   0  0  0
   58.0576    1.5708    0.0000 C   0  0  0
   56.9362    3.5241    0.0000 C   0  0  0
   55.8197    4.1630    0.0000 C   0  0  0
   55.8225    5.4969    0.0000 C   0  0  0
   54.6863    6.1103    0.0000 C   0  0  0
   53.5477    5.4989    0.0000 C   0  0  0
   52.4319    6.1441    0.0000 Cl  0  0  0
   53.5464    4.1656    0.0000 C   0  0  0
   54.6818    3.5540    0.0000 C   0  0  0
   58.0514    4.1612    0.0000 C   0  0  0
   59.1879    3.5503    0.0000 C   0  0  0
   60.3247    4.1599    0.0000 C   0  0  0
   60.3254    5.4935    0.0000 C   0  0  0
   61.4422    6.1369    0.0000 Cl  0  0  0
   59.1876    6.1067    0.0000 C   0  0  0
   58.0506    5.4953    0.0000 C   0  0  0
   56.9349   -0.3713    0.0000 C   0  0  0
   58.0568    0.2848    0.0000 C   0  0  0
   56.9177   -1.6623    0.0000 N   0  0  0
   58.0558   -2.3070    0.0000 C   0  0  0
   59.1926   -1.6727    0.0000 C   0  0  0
   59.1819   -0.3830    0.0000 C   0  0  0
   60.3140    0.2788    0.0000 N   0  0  0
   61.4206   -0.3524    0.0000 C   0  0  0
   61.4170   -1.6880    0.0000 C   0  0  0
   62.5525   -2.3010    0.0000 C   0  0  0
   63.6916   -1.6930    0.0000 N   0  0  0
   63.6952   -0.3576    0.0000 C   0  0  0
   62.5597    0.2554    0.0000 C   0  0  0
   64.8081   -2.3356    0.0000 S   0  0  0
   64.1556   -3.4601    0.0000 O   0  0  0
   65.4603   -1.2118    0.0000 O   0  0  0
   65.9332   -2.9860    0.0000 C   0  0  0
   65.2838   -4.1116    0.0000 F   0  0  0
   66.5838   -4.1105    0.0000 F   0  0  0
   67.0585   -2.3350    0.0000 F   0  0  0
  1  2  1  0
  2  3  1  0
  2  4  1  0
  2  5  1  0
  5  6  2  0
  5  7  2  0
  5  8  1  0
  8  9  1  0
  9 10  1  0
 10 13  1  0
  8 11  1  0
 11 12  1  0
 12 13  1  0
 13 14  1  0
 14 15  1  0
 15 20  1  0
 15 16  2  0
 16 17  1  0
 17 18  2  0
 18 19  1  0
 19 20  2  0
 20 24  1  0
 19 21  1  0
 21 22  2  0
 22 23  1  0
 23 24  2  0
 23 25  1  0
 25 26  1  0
 26 32  1  0
 26 27  2  0
 27 28  1  0
 28 29  2  0
 29 30  1  0
 29 31  1  0
 31 32  2  0
 25 33  1  0
 33 39  1  0
 33 34  2  0
 34 35  1  0
 35 36  2  0
 36 37  1  0
 36 38  1  0
 38 39  2  0
 21 40  1  0
 40 41  1  0
 41 42  1  0
 42 43  1  0
 43 44  1  0
 44 45  1  0
 45 46  1  0
 46 47  1  0
 47 48  1  0
 48 49  1  0
 49 50  1  0
 50 51  1  0
 51 52  1  0
 52 53  1  0
 53 54  1  0
 54 55  1  0
 55 56  1  0
 56 57  1  0
 57 58  1  0
 58 59  1  0
 59 60  1  0
 60 61  1  0
 61 62  1  0
 62 63  1  0
 63 64  1  0
 64 65  1  0
 65 66  1  0
 66 67  1  0
 67 68  1  0
 68 69  1  0
 69 70  1  0
 70 71  1  0
 71 72  1  0
 72 73  1  0
 73 74  1  0
 74 75  1  0
 75 76  1  0
 76 77  1  0
 77 78  1  0
 78 79  1  0
 79 80  2  0
 79 81  1  0
 81 82  1  0
 82 83  1  0
 83 84  1  0
 84 85  1  0
 85 86  1  0
 86 87  1  0
 87 88  1  0
 88 89  1  0
 89 90  1  0
 90 91  1  0
 91 92  1  0
 92 93  1  0
 93 94  1  0
 94 95  1  0
 95 96  1  0
 96 97  1  0
 97 98  1  0
 98 99  1  0
 99100  2  0
 99101  1  0
101102  1  0
102103  1  0
103104  1  0
104105  1  0
105106  1  0
106107  1  0
107108  1  0
108109  1  0
109110  1  0
110111  1  0
111112  1  0
112113  1  0
113114  1  0
114115  1  0
115116  1  0
116117  1  0
117118  1  0
118119  1  0
119120  1  0
120121  1  0
121122  1  0
122123  1  0
123124  1  0
124125  1  0
125126  1  0
126127  1  0
127128  1  0
128129  1  0
129130  1  0
130131  1  0
131132  1  0
132133  1  0
133134  1  0
134135  1  0
135136  1  0
136137  1  0
137138  1  0
138139  1  0
139140  1  0
140141  2  0
141142  1  0
142143  2  0
143160  1  0
142144  1  0
144145  1  0
145151  1  0
145146  2  0
146147  1  0
147148  2  0
148149  1  0
148150  1  0
150151  2  0
144152  1  0
152158  1  0
152153  2  0
153154  1  0
154155  2  0
155156  1  0
155157  1  0
157158  2  0
140159  1  0
159160  2  0
160164  1  0
159161  1  0
161162  2  0
162163  1  0
163164  2  0
164165  1  0
165166  1  0
166171  1  0
166167  1  0
167168  1  0
168169  1  0
169170  1  0
170171  1  0
169172  1  0
172173  2  0
172174  2  0
172175  1  0
175176  1  0
175177  1  0
175178  1  0
M  END
>  <act4>
0

>  <canvasUID>
1500

$$$$

  Canvas  00000000002D

119129  0  0  1  0  0  0  0  0999 V2000
   33.2169    2.5714    0.0000 C   0  0  0
   34.3422    1.9204    0.0000 C   0  0  0
   34.3411    0.6204    0.0000 C   0  0  0
   35.4664   -0.0304    0.0000 Cl  0  0  0
   33.2148   -0.0286    0.0000 C   0  0  0
   32.0895    0.6222    0.0000 C   0  0  0
   32.0905    1.9222    0.0000 C   0  0  0
   30.9653    2.5732    0.0000 C   0  0  0
   30.9663    3.8733    0.0000 C   0  0  0
   29.8410    4.5240    0.0000 C   0  0  0
   29.8420    5.8241    0.0000 C   0  0  0
   32.0926    4.5222    0.0000 C   0  0  0
   32.0937    5.8222    0.0000 C   0  0  0
   30.9684    6.4733    0.0000 C   0  0  0
   30.9694    7.7733    0.0000 Cl  0  0  0
   29.8389    1.9240    0.0000 C   0  0  0
   29.8379    0.6240    0.0000 C   0  0  0
   28.7116   -0.0252    0.0000 C   0  0  0
   28.7136    2.5751    0.0000 C   0  0  0
   27.5873    1.9258    0.0000 C   0  0  0
   27.5863    0.6258    0.0000 C   0  0  0
   26.4620    2.5769    0.0000 C   0  0  0
   26.4631    3.8766    0.0000 N   0  0  0
   25.3378    4.5277    0.0000 C   0  0  0
   25.3388    5.8277    0.0000 C   0  0  0
   24.2135    6.4787    0.0000 C   0  0  0
   23.0872    5.8295    0.0000 N   0  0  0
   23.0861    4.5295    0.0000 C   0  0  0
   24.2114    3.8785    0.0000 C   0  0  0
   21.9619    6.4803    0.0000 S   0  0  0
   22.6127    7.6056    0.0000 O   0  0  0
   21.3108    5.3550    0.0000 O   0  0  0
   20.8366    7.1313    0.0000 C   0  0  0
   20.1856    6.0061    0.0000 F   0  0  0
   19.5366    7.1324    0.0000 F   0  0  0
   20.8376    8.4314    0.0000 F   0  0  0
   25.3357    1.9277    0.0000 C   0  0  0
   25.3346    0.6276    0.0000 C   0  0  0
   26.4599   -0.0234    0.0000 N   0  0  0
   24.2083   -0.0216    0.0000 O   0  0  0
   23.0830    0.6295    0.0000 C   0  0  0
   21.9567   -0.0198    0.0000 C   0  0  0
   20.8314    0.6313    0.0000 O   0  0  0
   19.7051   -0.0179    0.0000 C   0  0  0
   18.5798    0.6331    0.0000 C   0  0  0
   17.4534   -0.0161    0.0000 O   0  0  0
   16.3282    0.6349    0.0000 C   0  0  0
   15.2018   -0.0143    0.0000 C   0  0  0
   14.0765    0.6365    0.0000 O   0  0  0
   12.9502   -0.0125    0.0000 C   0  0  0
   11.8249    0.6383    0.0000 C   0  0  0
   10.6986   -0.0107    0.0000 O   0  0  0
    9.5733    0.6401    0.0000 C   0  0  0
    8.4470   -0.0088    0.0000 C   0  0  0
    7.3217    0.6419    0.0000 O   0  0  0
    6.1953   -0.0070    0.0000 C   0  0  0
    5.0700    0.6438    0.0000 C   0  0  0
    3.9437   -0.0055    0.0000 O   0  0  0
    2.8184    0.6456    0.0000 C   0  0  0
    1.6921   -0.0036    0.0000 C   0  0  0
    0.5668    0.6474    0.0000 O   0  0  0
   -0.5595   -0.0018    0.0000 C   0  0  0
   -1.6848    0.6492    0.0000 C   0  0  0
   -2.8111    0.0000    0.0000 O   0  0  0
   -3.9364    0.6510    0.0000 C   0  0  0
   -5.0628    0.0018    0.0000 C   0  0  0
   -6.1881    0.6526    0.0000 O   0  0  0
   -7.3144    0.0036    0.0000 C   0  0  0
   -8.4397    0.6544    0.0000 C   0  0  0
   -9.5660    0.0055    0.0000 O   0  0  0
  -10.6913    0.6562    0.0000 C   0  0  0
  -11.8176    0.0073    0.0000 C   0  0  0
  -12.9429    0.6581    0.0000 O   0  0  0
  -14.0693    0.0091    0.0000 C   0  0  0
  -15.1945    0.6599    0.0000 C   0  0  0
  -16.3209    0.0109    0.0000 N   0  0  0
  -17.4462    0.6617    0.0000 C   0  0  0
  -17.4451    1.9617    0.0000 O   0  0  0
  -18.5725    0.0125    0.0000 C   0  0  0
  -19.6978    0.6635    0.0000 C   0  0  0
  -20.8241    0.0143    0.0000 C   0  0  0
  -20.8252   -1.2857    0.0000 C   0  0  0
  -19.6999   -1.9365    0.0000 C   0  0  0
  -18.5735   -1.2873    0.0000 C   0  0  0
  -21.9515   -1.9347    0.0000 S   0  0  0
  -22.6007   -0.8083    0.0000 O   0  0  0
  -21.3025   -3.0610    0.0000 O   0  0  0
  -23.0778   -2.5839    0.0000 N   0  0  0
  -24.2031   -1.9329    0.0000 C   0  0  0
  -25.3294   -2.5821    0.0000 C   0  0  0
  -25.3305   -3.8821    0.0000 C   0  0  0
  -24.2052   -4.5331    0.0000 C   0  0  0
  -23.0789   -3.8839    0.0000 C   0  0  0
  -26.4568   -4.5311    0.0000 N   0  0  0
  -26.4578   -5.8311    0.0000 C   0  0  0
  -25.3326   -6.4821    0.0000 N   0  0  0
  -25.3336   -7.7821    0.0000 C   0  0  0
  -26.4599   -8.4314    0.0000 N   0  0  0
  -27.5842   -6.4803    0.0000 C   0  0  0
  -27.5852   -7.7803    0.0000 C   0  0  0
  -28.7095   -5.8293    0.0000 C   0  0  0
  -29.8358   -6.4785    0.0000 C   0  0  0
  -29.8368   -7.7785    0.0000 C   0  0  0
  -28.7115   -8.4295    0.0000 C   0  0  0
  -30.9611   -5.8277    0.0000 C   0  0  0
  -30.9601   -4.5277    0.0000 C   0  0  0
  -29.8337   -3.8785    0.0000 C   0  0  0
  -29.8327   -2.5784    0.0000 C   0  0  0
  -30.9580   -1.9277    0.0000 C   0  0  0
  -30.9569   -0.6276    0.0000 Cl  0  0  0
  -32.0843   -2.5766    0.0000 C   0  0  0
  -32.0853   -3.8766    0.0000 C   0  0  0
  -32.0874   -6.4767    0.0000 C   0  0  0
  -33.2127   -5.8259    0.0000 C   0  0  0
  -34.3390   -6.4748    0.0000 C   0  0  0
  -34.3401   -7.7749    0.0000 C   0  0  0
  -35.4664   -8.4241    0.0000 Cl  0  0  0
  -33.2148   -8.4259    0.0000 C   0  0  0
  -32.0885   -7.7767    0.0000 C   0  0  0
  1  7  1  0
  1  2  2  0
  2  3  1  0
  3  4  1  0
  3  5  2  0
  5  6  1  0
  6  7  2  0
  7  8  1  0
  8  9  1  0
  9 10  1  0
 10 11  2  0
 11 14  1  0
  9 12  2  0
 12 13  1  0
 13 14  2  0
 14 15  1  0
  8 16  1  0
 16 17  1  0
 17 18  2  0
 18 21  1  0
 16 19  2  0
 19 20  1  0
 20 21  2  0
 21 39  1  0
 20 22  1  0
 22 23  1  0
 23 24  1  0
 24 29  1  0
 24 25  1  0
 25 26  1  0
 26 27  1  0
 27 28  1  0
 28 29  1  0
 27 30  1  0
 30 31  2  0
 30 32  2  0
 30 33  1  0
 33 34  1  0
 33 35  1  0
 33 36  1  0
 22 37  2  0
 37 38  1  0
 38 39  2  0
 38 40  1  0
 40 41  1  0
 41 42  1  0
 42 43  1  0
 43 44  1  0
 44 45  1  0
 45 46  1  0
 46 47  1  0
 47 48  1  0
 48 49  1  0
 49 50  1  0
 50 51  1  0
 51 52  1  0
 52 53  1  0
 53 54  1  0
 54 55  1  0
 55 56  1  0
 56 57  1  0
 57 58  1  0
 58 59  1  0
 59 60  1  0
 60 61  1  0
 61 62  1  0
 62 63  1  0
 63 64  1  0
 64 65  1  0
 65 66  1  0
 66 67  1  0
 67 68  1  0
 68 69  1  0
 69 70  1  0
 70 71  1  0
 71 72  1  0
 72 73  1  0
 73 74  1  0
 74 75  1  0
 75 76  1  0
 76 77  1  0
 77 78  2  0
 77 79  1  0
 79 84  1  0
 79 80  2  0
 80 81  1  0
 81 82  2  0
 82 83  1  0
 83 84  2  0
 82 85  1  0
 85 86  2  0
 85 87  2  0
 85 88  1  0
 88 93  1  0
 88 89  1  0
 89 90  1  0
 90 91  1  0
 91 92  1  0
 92 93  1  0
 91 94  1  0
 94 95  1  0
 95 96  2  0
 96 97  1  0
 97 98  2  0
 98100  1  0
 95 99  1  0
 99100  2  0
100104  1  0
 99101  1  0
101102  2  0
102103  1  0
103104  2  0
102105  1  0
105106  1  0
106112  1  0
106107  2  0
107108  1  0
108109  2  0
109110  1  0
109111  1  0
111112  2  0
105113  1  0
113119  1  0
113114  2  0
114115  1  0
115116  2  0
116117  1  0
116118  1  0
118119  2  0
M  END
>  <act4>
0

>  <canvasUID>
1556

$$$$
